<?xml version="1.0" encoding="UTF-8"?>

<!-- generated on Wed Feb 21 19:52:40 2018 by SUMO netconvert Version 0.32.0
<?xml version="1.0" encoding="UTF-8"?>

<configuration xmlns:xsi="http://www.w3.org/2001/XMLSchema-instance" xsi:noNamespaceSchemaLocation="http://sumo.dlr.de/xsd/netconvertConfiguration.xsd">

    <input>
        <node-files value="cross.nod.xml"/>
        <edge-files value="cross.edg.xml"/>
        <connection-files value="cross.con.xml"/>
    </input>

    <output>
        <output-file value="cross.net.xml"/>
    </output>

    <report>
        <verbose value="true"/>
        <xml-validation value="never"/>
    </report>

</configuration>
-->

<net version="0.27" xmlns:xsi="http://www.w3.org/2001/XMLSchema-instance" xsi:noNamespaceSchemaLocation="http://sumo.dlr.de/xsd/net_file.xsd">

    <location netOffset="0.00,1500.00" convBoundary="0.00,0.00,1500.00,1500.00" origBoundary="0.00,-1500.00,1500.00,0.00" projParameter="!"/>

    <edge id=":1_0" function="internal">
        <lane id=":1_0_0" index="0" speed="13.90" length="2.58" shape="-0.05,1501.65 -0.75,1501.55 -1.25,1501.25 -1.55,1500.75 -1.65,1500.05"/>
    </edge>
    <edge id=":10_0" function="internal">
        <lane id=":10_0_0" index="0" speed="13.90" length="5.00" shape="304.75,601.65 303.39,601.84 302.42,602.42 301.84,603.39 301.65,604.75"/>
    </edge>
    <edge id=":10_1" function="internal">
        <lane id=":10_1_0" index="0" speed="13.90" length="6.20" shape="304.75,601.65 298.55,601.65"/>
    </edge>
    <edge id=":10_2" function="internal">
        <lane id=":10_2_0" index="0" speed="13.90" length="6.20" shape="301.65,598.55 301.65,604.75"/>
    </edge>
    <edge id=":10_3" function="internal">
        <lane id=":10_3_0" index="0" speed="13.90" length="5.00" shape="301.65,598.55 301.46,599.91 300.88,600.88 299.91,601.46 298.55,601.65"/>
    </edge>
    <edge id=":11_0" function="internal">
        <lane id=":11_0_0" index="0" speed="13.90" length="5.00" shape="301.65,295.25 301.84,296.61 302.42,297.58 303.39,298.16 304.75,298.35"/>
    </edge>
    <edge id=":11_1" function="internal">
        <lane id=":11_1_0" index="0" speed="13.90" length="6.20" shape="301.65,295.25 301.65,301.45"/>
    </edge>
    <edge id=":11_2" function="internal">
        <lane id=":11_2_0" index="0" speed="13.90" length="6.20" shape="298.55,298.35 304.75,298.35"/>
    </edge>
    <edge id=":11_3" function="internal">
        <lane id=":11_3_0" index="0" speed="13.90" length="5.00" shape="298.55,298.35 299.91,298.54 300.88,299.12 301.46,300.09 301.65,301.45"/>
    </edge>
    <edge id=":12_0" function="internal">
        <lane id=":12_0_0" index="0" speed="13.90" length="6.20" shape="298.55,-1.65 304.75,-1.65"/>
    </edge>
    <edge id=":12_1" function="internal">
        <lane id=":12_1_0" index="0" speed="13.90" length="5.00" shape="298.55,-1.65 299.91,-1.46 300.88,-0.88 301.46,0.09 301.65,1.45"/>
    </edge>
    <edge id=":13_0" function="internal">
        <lane id=":13_0_0" index="0" speed="13.90" length="6.20" shape="601.45,1501.65 595.25,1501.65"/>
    </edge>
    <edge id=":13_1" function="internal">
        <lane id=":13_1_0" index="0" speed="13.90" length="5.00" shape="601.45,1501.65 600.09,1501.46 599.12,1500.88 598.54,1499.91 598.35,1498.55"/>
    </edge>
    <edge id=":14_0" function="internal">
        <lane id=":14_0_0" index="0" speed="13.90" length="5.00" shape="598.35,1204.75 598.16,1203.39 597.58,1202.43 596.61,1201.84 595.25,1201.65"/>
    </edge>
    <edge id=":14_1" function="internal">
        <lane id=":14_1_0" index="0" speed="13.90" length="6.20" shape="598.35,1204.75 598.35,1198.55"/>
    </edge>
    <edge id=":14_2" function="internal">
        <lane id=":14_2_0" index="0" speed="13.90" length="6.20" shape="601.45,1201.65 595.25,1201.65"/>
    </edge>
    <edge id=":14_3" function="internal">
        <lane id=":14_3_0" index="0" speed="13.90" length="5.00" shape="601.45,1201.65 600.09,1201.46 599.12,1200.88 598.54,1199.91 598.35,1198.55"/>
    </edge>
    <edge id=":15_0" function="internal">
        <lane id=":15_0_0" index="0" speed="13.90" length="12.80" shape="598.35,901.45 598.35,888.65"/>
    </edge>
    <edge id=":15_1" function="internal">
        <lane id=":15_1_0" index="0" speed="13.90" length="7.85" shape="598.35,901.45 598.54,898.65 599.12,896.65 600.09,895.45 601.45,895.05"/>
    </edge>
    <edge id=":15_2" function="internal">
        <lane id=":15_2_0" index="0" speed="13.90" length="5.00" shape="598.35,901.45 598.54,900.09 599.12,899.12 600.09,898.54 601.45,898.35"/>
    </edge>
    <edge id=":15_3" function="internal">
        <lane id=":15_3_0" index="0" speed="13.90" length="5.00" shape="595.25,891.75 596.61,891.56 597.58,890.98 598.16,890.01 598.35,888.65"/>
    </edge>
    <edge id=":15_4" function="internal">
        <lane id=":15_4_0" index="0" speed="13.90" length="6.20" shape="595.25,891.75 601.45,891.75"/>
        <lane id=":15_4_1" index="1" speed="13.90" length="6.20" shape="595.25,895.05 601.45,895.05"/>
        <lane id=":15_4_2" index="2" speed="13.90" length="6.20" shape="595.25,898.35 601.45,898.35"/>
    </edge>
    <edge id=":16_0" function="internal">
        <lane id=":16_0_0" index="0" speed="13.90" length="5.00" shape="598.35,604.75 598.16,603.39 597.58,602.42 596.61,601.84 595.25,601.65"/>
    </edge>
    <edge id=":16_1" function="internal">
        <lane id=":16_1_0" index="0" speed="13.90" length="6.20" shape="598.35,604.75 598.35,598.55"/>
    </edge>
    <edge id=":16_2" function="internal">
        <lane id=":16_2_0" index="0" speed="13.90" length="6.20" shape="601.45,601.65 595.25,601.65"/>
    </edge>
    <edge id=":16_3" function="internal">
        <lane id=":16_3_0" index="0" speed="13.90" length="5.00" shape="601.45,601.65 600.09,601.46 599.12,600.88 598.54,599.91 598.35,598.55"/>
    </edge>
    <edge id=":17_0" function="internal">
        <lane id=":17_0_0" index="0" speed="13.90" length="6.20" shape="598.35,301.45 598.35,295.25"/>
    </edge>
    <edge id=":17_1" function="internal">
        <lane id=":17_1_0" index="0" speed="13.90" length="5.00" shape="598.35,301.45 598.54,300.09 599.12,299.12 600.09,298.54 601.45,298.35"/>
    </edge>
    <edge id=":17_2" function="internal">
        <lane id=":17_2_0" index="0" speed="13.90" length="5.00" shape="595.25,298.35 596.61,298.16 597.58,297.58 598.16,296.61 598.35,295.25"/>
    </edge>
    <edge id=":17_3" function="internal">
        <lane id=":17_3_0" index="0" speed="13.90" length="6.20" shape="595.25,298.35 601.45,298.35"/>
    </edge>
    <edge id=":18_0" function="internal">
        <lane id=":18_0_0" index="0" speed="13.90" length="5.00" shape="598.35,1.45 598.54,0.09 599.12,-0.88 600.09,-1.46 601.45,-1.65"/>
    </edge>
    <edge id=":18_1" function="internal">
        <lane id=":18_1_0" index="0" speed="13.90" length="6.20" shape="595.25,-1.65 601.45,-1.65"/>
    </edge>
    <edge id=":19_0" function="internal">
        <lane id=":19_0_0" index="0" speed="13.90" length="6.20" shape="904.75,1501.65 898.55,1501.65"/>
    </edge>
    <edge id=":19_1" function="internal">
        <lane id=":19_1_0" index="0" speed="13.90" length="5.00" shape="901.65,1498.55 901.46,1499.91 900.88,1500.88 899.91,1501.46 898.55,1501.65"/>
    </edge>
    <edge id=":2_0" function="internal">
        <lane id=":2_0_0" index="0" speed="13.90" length="6.20" shape="-1.65,1204.75 -1.65,1198.55"/>
    </edge>
    <edge id=":2_1" function="internal">
        <lane id=":2_1_0" index="0" speed="13.90" length="5.00" shape="1.45,1201.65 0.09,1201.46 -0.88,1200.88 -1.46,1199.91 -1.65,1198.55"/>
    </edge>
    <edge id=":20_0" function="internal">
        <lane id=":20_0_0" index="0" speed="13.90" length="5.00" shape="904.75,1201.65 903.39,1201.84 902.43,1202.43 901.84,1203.39 901.65,1204.75"/>
    </edge>
    <edge id=":20_1" function="internal">
        <lane id=":20_1_0" index="0" speed="13.90" length="6.20" shape="904.75,1201.65 898.55,1201.65"/>
    </edge>
    <edge id=":20_2" function="internal">
        <lane id=":20_2_0" index="0" speed="13.90" length="6.20" shape="901.65,1198.55 901.65,1204.75"/>
    </edge>
    <edge id=":20_3" function="internal">
        <lane id=":20_3_0" index="0" speed="13.90" length="5.00" shape="901.65,1198.55 901.46,1199.91 900.88,1200.88 899.91,1201.46 898.55,1201.65"/>
    </edge>
    <edge id=":21_0" function="internal">
        <lane id=":21_0_0" index="0" speed="13.90" length="5.00" shape="901.65,888.65 901.84,890.01 902.42,890.98 903.39,891.56 904.75,891.75"/>
    </edge>
    <edge id=":21_1" function="internal">
        <lane id=":21_1_0" index="0" speed="13.90" length="12.80" shape="901.65,888.65 901.65,901.45"/>
    </edge>
    <edge id=":21_2" function="internal">
        <lane id=":21_2_0" index="0" speed="13.90" length="6.20" shape="898.55,891.75 904.75,891.75"/>
        <lane id=":21_2_1" index="1" speed="13.90" length="6.20" shape="898.55,895.05 904.75,895.05"/>
        <lane id=":21_2_2" index="2" speed="13.90" length="6.20" shape="898.55,898.35 904.75,898.35"/>
    </edge>
    <edge id=":21_5" function="internal">
        <lane id=":21_5_0" index="0" speed="13.90" length="5.00" shape="898.55,898.35 899.91,898.54 900.88,899.12 901.46,900.09 901.65,901.45"/>
    </edge>
    <edge id=":22_0" function="internal">
        <lane id=":22_0_0" index="0" speed="13.90" length="5.00" shape="904.75,601.65 903.39,601.84 902.43,602.42 901.84,603.39 901.65,604.75"/>
    </edge>
    <edge id=":22_1" function="internal">
        <lane id=":22_1_0" index="0" speed="13.90" length="6.20" shape="904.75,601.65 898.55,601.65"/>
    </edge>
    <edge id=":22_2" function="internal">
        <lane id=":22_2_0" index="0" speed="13.90" length="6.20" shape="901.65,598.55 901.65,604.75"/>
    </edge>
    <edge id=":22_3" function="internal">
        <lane id=":22_3_0" index="0" speed="13.90" length="5.00" shape="901.65,598.55 901.46,599.91 900.88,600.88 899.91,601.46 898.55,601.65"/>
    </edge>
    <edge id=":23_0" function="internal">
        <lane id=":23_0_0" index="0" speed="13.90" length="5.00" shape="901.65,295.25 901.84,296.61 902.42,297.58 903.39,298.16 904.75,298.35"/>
    </edge>
    <edge id=":23_1" function="internal">
        <lane id=":23_1_0" index="0" speed="13.90" length="6.20" shape="901.65,295.25 901.65,301.45"/>
    </edge>
    <edge id=":23_2" function="internal">
        <lane id=":23_2_0" index="0" speed="13.90" length="6.20" shape="898.55,298.35 904.75,298.35"/>
    </edge>
    <edge id=":23_3" function="internal">
        <lane id=":23_3_0" index="0" speed="13.90" length="5.00" shape="898.55,298.35 899.91,298.54 900.88,299.12 901.46,300.09 901.65,301.45"/>
    </edge>
    <edge id=":24_0" function="internal">
        <lane id=":24_0_0" index="0" speed="13.90" length="6.20" shape="898.55,-1.65 904.75,-1.65"/>
    </edge>
    <edge id=":24_1" function="internal">
        <lane id=":24_1_0" index="0" speed="13.90" length="5.00" shape="898.55,-1.65 899.91,-1.46 900.88,-0.88 901.46,0.09 901.65,1.45"/>
    </edge>
    <edge id=":25_0" function="internal">
        <lane id=":25_0_0" index="0" speed="13.90" length="6.20" shape="1201.45,1501.65 1195.25,1501.65"/>
    </edge>
    <edge id=":25_1" function="internal">
        <lane id=":25_1_0" index="0" speed="13.90" length="5.00" shape="1201.45,1501.65 1200.09,1501.46 1199.12,1500.88 1198.54,1499.91 1198.35,1498.55"/>
    </edge>
    <edge id=":26_0" function="internal">
        <lane id=":26_0_0" index="0" speed="13.90" length="5.00" shape="1198.35,1204.75 1198.16,1203.39 1197.57,1202.43 1196.61,1201.84 1195.25,1201.65"/>
    </edge>
    <edge id=":26_1" function="internal">
        <lane id=":26_1_0" index="0" speed="13.90" length="6.20" shape="1198.35,1204.75 1198.35,1198.55"/>
    </edge>
    <edge id=":26_2" function="internal">
        <lane id=":26_2_0" index="0" speed="13.90" length="6.20" shape="1201.45,1201.65 1195.25,1201.65"/>
    </edge>
    <edge id=":26_3" function="internal">
        <lane id=":26_3_0" index="0" speed="13.90" length="5.00" shape="1201.45,1201.65 1200.09,1201.46 1199.12,1200.88 1198.54,1199.91 1198.35,1198.55"/>
    </edge>
    <edge id=":27_0" function="internal">
        <lane id=":27_0_0" index="0" speed="13.90" length="13.06" shape="1198.35,901.45 1197.83,898.27 1196.70,895.65 1195.57,892.74 1195.05,888.65"/>
        <lane id=":27_0_1" index="1" speed="13.90" length="13.06" shape="1198.35,901.45 1198.35,888.65"/>
    </edge>
    <edge id=":27_2" function="internal">
        <lane id=":27_2_0" index="0" speed="13.90" length="5.00" shape="1198.35,901.45 1198.54,900.09 1199.12,899.12 1200.09,898.54 1201.45,898.35"/>
    </edge>
    <edge id=":27_3" function="internal">
        <lane id=":27_3_0" index="0" speed="13.90" length="5.00" shape="1188.65,891.75 1190.01,891.56 1190.97,890.98 1191.56,890.01 1191.75,888.65"/>
    </edge>
    <edge id=":27_4" function="internal">
        <lane id=":27_4_0" index="0" speed="13.90" length="13.32" shape="1188.65,895.05 1192.74,895.57 1195.65,896.70 1198.27,897.83 1201.45,898.35"/>
    </edge>
    <edge id=":28_0" function="internal">
        <lane id=":28_0_0" index="0" speed="13.90" length="5.00" shape="1191.75,604.75 1191.56,603.39 1190.97,602.42 1190.01,601.84 1188.65,601.65"/>
    </edge>
    <edge id=":28_1" function="internal">
        <lane id=":28_1_0" index="0" speed="13.90" length="6.20" shape="1191.75,604.75 1191.75,598.55"/>
        <lane id=":28_1_1" index="1" speed="13.90" length="6.20" shape="1195.05,604.75 1195.05,598.55"/>
        <lane id=":28_1_2" index="2" speed="13.90" length="6.20" shape="1198.35,604.75 1198.35,598.55"/>
    </edge>
    <edge id=":28_4" function="internal">
        <lane id=":28_4_0" index="0" speed="13.90" length="12.80" shape="1201.45,601.65 1188.65,601.65"/>
    </edge>
    <edge id=":28_5" function="internal">
        <lane id=":28_5_0" index="0" speed="13.90" length="7.85" shape="1201.45,601.65 1198.65,601.46 1196.65,600.88 1195.45,599.91 1195.05,598.55"/>
    </edge>
    <edge id=":28_6" function="internal">
        <lane id=":28_6_0" index="0" speed="13.90" length="5.00" shape="1201.45,601.65 1200.09,601.46 1199.12,600.88 1198.54,599.91 1198.35,598.55"/>
    </edge>
    <edge id=":29_0" function="internal">
        <lane id=":29_0_0" index="0" speed="13.90" length="9.79" shape="1191.75,301.45 1192.78,299.21 1195.05,298.35 1197.32,297.49 1198.35,295.25"/>
    </edge>
    <edge id=":29_1" function="internal">
        <lane id=":29_1_0" index="0" speed="13.90" length="5.00" shape="1198.35,301.45 1198.54,300.09 1199.12,299.12 1200.09,298.54 1201.45,298.35"/>
    </edge>
    <edge id=":29_2" function="internal">
        <lane id=":29_2_0" index="0" speed="13.90" length="10.88" shape="1188.65,298.35 1192.89,298.16 1195.92,297.58 1197.74,296.61 1198.35,295.25"/>
    </edge>
    <edge id=":29_3" function="internal">
        <lane id=":29_3_0" index="0" speed="13.90" length="12.80" shape="1188.65,298.35 1201.45,298.35"/>
    </edge>
    <edge id=":3_0" function="internal">
        <lane id=":3_0_0" index="0" speed="13.90" length="6.20" shape="-1.65,901.45 -1.65,895.25"/>
    </edge>
    <edge id=":3_1" function="internal">
        <lane id=":3_1_0" index="0" speed="13.90" length="5.00" shape="-1.65,901.45 -1.46,900.09 -0.88,899.12 0.09,898.54 1.45,898.35"/>
    </edge>
    <edge id=":30_0" function="internal">
        <lane id=":30_0_0" index="0" speed="13.90" length="5.00" shape="1198.35,1.45 1198.54,0.09 1199.12,-0.87 1200.09,-1.46 1201.45,-1.65"/>
    </edge>
    <edge id=":30_1" function="internal">
        <lane id=":30_1_0" index="0" speed="13.90" length="6.20" shape="1195.25,-1.65 1201.45,-1.65"/>
    </edge>
    <edge id=":31_0" function="internal">
        <lane id=":31_0_0" index="0" speed="13.90" length="2.58" shape="1501.65,1500.05 1501.55,1500.75 1501.25,1501.25 1500.75,1501.55 1500.05,1501.65"/>
    </edge>
    <edge id=":32_0" function="internal">
        <lane id=":32_0_0" index="0" speed="13.90" length="6.20" shape="1501.65,1198.55 1501.65,1204.75"/>
    </edge>
    <edge id=":32_1" function="internal">
        <lane id=":32_1_0" index="0" speed="13.90" length="5.00" shape="1501.65,1198.55 1501.46,1199.91 1500.88,1200.88 1499.91,1201.46 1498.55,1201.65"/>
    </edge>
    <edge id=":33_0" function="internal">
        <lane id=":33_0_0" index="0" speed="13.90" length="6.20" shape="1501.65,895.25 1501.65,901.45"/>
    </edge>
    <edge id=":33_1" function="internal">
        <lane id=":33_1_0" index="0" speed="13.90" length="5.00" shape="1498.55,898.35 1499.91,898.54 1500.88,899.12 1501.46,900.09 1501.65,901.45"/>
    </edge>
    <edge id=":34_0" function="internal">
        <lane id=":34_0_0" index="0" speed="13.90" length="6.20" shape="1501.65,598.55 1501.65,604.75"/>
    </edge>
    <edge id=":34_1" function="internal">
        <lane id=":34_1_0" index="0" speed="13.90" length="5.00" shape="1501.65,598.55 1501.46,599.91 1500.88,600.88 1499.91,601.46 1498.55,601.65"/>
    </edge>
    <edge id=":35_0" function="internal">
        <lane id=":35_0_0" index="0" speed="13.90" length="6.20" shape="1501.65,295.25 1501.65,301.45"/>
    </edge>
    <edge id=":35_1" function="internal">
        <lane id=":35_1_0" index="0" speed="13.90" length="5.00" shape="1498.55,298.35 1499.91,298.54 1500.88,299.12 1501.46,300.09 1501.65,301.45"/>
    </edge>
    <edge id=":36_0" function="internal">
        <lane id=":36_0_0" index="0" speed="13.90" length="2.58" shape="1500.05,-1.65 1500.75,-1.55 1501.25,-1.25 1501.55,-0.75 1501.65,-0.05"/>
    </edge>
    <edge id=":4_0" function="internal">
        <lane id=":4_0_0" index="0" speed="13.90" length="6.20" shape="-1.65,604.75 -1.65,598.55"/>
    </edge>
    <edge id=":4_1" function="internal">
        <lane id=":4_1_0" index="0" speed="13.90" length="5.00" shape="1.45,601.65 0.09,601.46 -0.88,600.88 -1.46,599.91 -1.65,598.55"/>
    </edge>
    <edge id=":5_0" function="internal">
        <lane id=":5_0_0" index="0" speed="13.90" length="6.20" shape="-1.65,301.45 -1.65,295.25"/>
    </edge>
    <edge id=":5_1" function="internal">
        <lane id=":5_1_0" index="0" speed="13.90" length="5.00" shape="-1.65,301.45 -1.46,300.09 -0.88,299.12 0.09,298.54 1.45,298.35"/>
    </edge>
    <edge id=":6_0" function="internal">
        <lane id=":6_0_0" index="0" speed="13.90" length="2.58" shape="-1.65,-0.05 -1.55,-0.75 -1.25,-1.25 -0.75,-1.55 -0.05,-1.65"/>
    </edge>
    <edge id=":7_0" function="internal">
        <lane id=":7_0_0" index="0" speed="13.90" length="6.20" shape="304.75,1501.65 298.55,1501.65"/>
    </edge>
    <edge id=":7_1" function="internal">
        <lane id=":7_1_0" index="0" speed="13.90" length="5.00" shape="301.65,1498.55 301.46,1499.91 300.88,1500.88 299.91,1501.46 298.55,1501.65"/>
    </edge>
    <edge id=":8_0" function="internal">
        <lane id=":8_0_0" index="0" speed="13.90" length="5.00" shape="304.75,1201.65 303.39,1201.84 302.42,1202.43 301.84,1203.39 301.65,1204.75"/>
    </edge>
    <edge id=":8_1" function="internal">
        <lane id=":8_1_0" index="0" speed="13.90" length="6.20" shape="304.75,1201.65 298.55,1201.65"/>
    </edge>
    <edge id=":8_2" function="internal">
        <lane id=":8_2_0" index="0" speed="13.90" length="6.20" shape="301.65,1198.55 301.65,1204.75"/>
    </edge>
    <edge id=":8_3" function="internal">
        <lane id=":8_3_0" index="0" speed="13.90" length="5.00" shape="301.65,1198.55 301.46,1199.91 300.88,1200.88 299.91,1201.46 298.55,1201.65"/>
    </edge>
    <edge id=":9_0" function="internal">
        <lane id=":9_0_0" index="0" speed="13.90" length="5.00" shape="301.65,888.65 301.84,890.01 302.42,890.98 303.39,891.56 304.75,891.75"/>
    </edge>
    <edge id=":9_1" function="internal">
        <lane id=":9_1_0" index="0" speed="13.90" length="12.80" shape="301.65,888.65 301.65,901.45"/>
    </edge>
    <edge id=":9_2" function="internal">
        <lane id=":9_2_0" index="0" speed="13.90" length="6.73" shape="298.55,898.35 300.51,897.83 301.65,896.70 302.79,895.57 304.75,895.05"/>
        <lane id=":9_2_1" index="1" speed="13.90" length="6.73" shape="298.55,898.35 304.75,898.35"/>
    </edge>
    <edge id=":9_4" function="internal">
        <lane id=":9_4_0" index="0" speed="13.90" length="5.00" shape="298.55,898.35 299.91,898.54 300.88,899.12 301.46,900.09 301.65,901.45"/>
    </edge>

    <edge id="10to4" from="10" to="4" priority="-1">
        <lane id="10to4_0" index="0" speed="13.90" length="297.10" shape="298.55,601.65 1.45,601.65"/>
    </edge>
    <edge id="10to9" from="10" to="9" priority="-1">
        <lane id="10to9_0" index="0" speed="13.90" length="283.90" shape="301.65,604.75 301.65,888.65"/>
    </edge>
    <edge id="11to10" from="11" to="10" priority="-1">
        <lane id="11to10_0" index="0" speed="13.90" length="297.10" shape="301.65,301.45 301.65,598.55"/>
    </edge>
    <edge id="11to17" from="11" to="17" priority="-1">
        <lane id="11to17_0" index="0" speed="13.90" length="290.50" shape="304.75,298.35 595.25,298.35"/>
    </edge>
    <edge id="12to11" from="12" to="11" priority="-1">
        <lane id="12to11_0" index="0" speed="13.90" length="293.80" shape="301.65,1.45 301.65,295.25"/>
    </edge>
    <edge id="12to18" from="12" to="18" priority="-1">
        <lane id="12to18_0" index="0" speed="13.90" length="290.50" shape="304.75,-1.65 595.25,-1.65"/>
    </edge>
    <edge id="13to14" from="13" to="14" priority="-1">
        <lane id="13to14_0" index="0" speed="13.90" length="293.80" shape="598.35,1498.55 598.35,1204.75"/>
    </edge>
    <edge id="13to7" from="13" to="7" priority="-1">
        <lane id="13to7_0" index="0" speed="13.90" length="290.50" shape="595.25,1501.65 304.75,1501.65"/>
    </edge>
    <edge id="14to15" from="14" to="15" priority="-1">
        <lane id="14to15_0" index="0" speed="13.90" length="297.10" shape="598.35,1198.55 598.35,901.45"/>
    </edge>
    <edge id="14to8" from="14" to="8" priority="-1">
        <lane id="14to8_0" index="0" speed="13.90" length="290.50" shape="595.25,1201.65 304.75,1201.65"/>
    </edge>
    <edge id="15to16" from="15" to="16" priority="-1">
        <lane id="15to16_0" index="0" speed="13.90" length="283.90" shape="598.35,888.65 598.35,604.75"/>
    </edge>
    <edge id="15to21" from="15" to="21" priority="-1">
        <lane id="15to21_0" index="0" speed="13.90" length="297.10" shape="601.45,891.75 898.55,891.75"/>
        <lane id="15to21_1" index="1" speed="13.90" length="297.10" shape="601.45,895.05 898.55,895.05"/>
        <lane id="15to21_2" index="2" speed="13.90" length="297.10" shape="601.45,898.35 898.55,898.35"/>
    </edge>
    <edge id="16to10" from="16" to="10" priority="-1">
        <lane id="16to10_0" index="0" speed="13.90" length="290.50" shape="595.25,601.65 304.75,601.65"/>
    </edge>
    <edge id="16to17" from="16" to="17" priority="-1">
        <lane id="16to17_0" index="0" speed="13.90" length="297.10" shape="598.35,598.55 598.35,301.45"/>
    </edge>
    <edge id="17to18" from="17" to="18" priority="-1">
        <lane id="17to18_0" index="0" speed="13.90" length="293.80" shape="598.35,295.25 598.35,1.45"/>
    </edge>
    <edge id="17to23" from="17" to="23" priority="-1">
        <lane id="17to23_0" index="0" speed="13.90" length="297.10" shape="601.45,298.35 898.55,298.35"/>
    </edge>
    <edge id="18to24" from="18" to="24" priority="-1">
        <lane id="18to24_0" index="0" speed="13.90" length="297.10" shape="601.45,-1.65 898.55,-1.65"/>
    </edge>
    <edge id="19to13" from="19" to="13" priority="-1">
        <lane id="19to13_0" index="0" speed="13.90" length="297.10" shape="898.55,1501.65 601.45,1501.65"/>
    </edge>
    <edge id="1to2" from="1" to="2" priority="-1">
        <lane id="1to2_0" index="0" speed="13.90" length="295.30" shape="-1.65,1500.05 -1.65,1204.75"/>
    </edge>
    <edge id="20to14" from="20" to="14" priority="-1">
        <lane id="20to14_0" index="0" speed="13.90" length="297.10" shape="898.55,1201.65 601.45,1201.65"/>
    </edge>
    <edge id="20to19" from="20" to="19" priority="-1">
        <lane id="20to19_0" index="0" speed="13.90" length="293.80" shape="901.65,1204.75 901.65,1498.55"/>
    </edge>
    <edge id="21to20" from="21" to="20" priority="-1">
        <lane id="21to20_0" index="0" speed="13.90" length="297.10" shape="901.65,901.45 901.65,1198.55"/>
    </edge>
    <edge id="21to27" from="21" to="27" priority="-1">
        <lane id="21to27_0" index="0" speed="13.90" length="283.90" shape="904.75,891.75 1188.65,891.75"/>
        <lane id="21to27_1" index="1" speed="13.90" length="283.90" shape="904.75,895.05 1188.65,895.05"/>
        <lane id="21to27_2" index="2" speed="13.90" length="283.90" shape="904.75,898.35 1188.65,898.35"/>
    </edge>
    <edge id="22to16" from="22" to="16" priority="-1">
        <lane id="22to16_0" index="0" speed="13.90" length="297.10" shape="898.55,601.65 601.45,601.65"/>
    </edge>
    <edge id="22to21" from="22" to="21" priority="-1">
        <lane id="22to21_0" index="0" speed="13.90" length="283.90" shape="901.65,604.75 901.65,888.65"/>
    </edge>
    <edge id="23to22" from="23" to="22" priority="-1">
        <lane id="23to22_0" index="0" speed="13.90" length="297.10" shape="901.65,301.45 901.65,598.55"/>
    </edge>
    <edge id="23to29" from="23" to="29" priority="-1">
        <lane id="23to29_0" index="0" speed="13.90" length="283.90" shape="904.75,298.35 1188.65,298.35"/>
    </edge>
    <edge id="24to23" from="24" to="23" priority="-1">
        <lane id="24to23_0" index="0" speed="13.90" length="293.80" shape="901.65,1.45 901.65,295.25"/>
    </edge>
    <edge id="24to30" from="24" to="30" priority="-1">
        <lane id="24to30_0" index="0" speed="13.90" length="290.50" shape="904.75,-1.65 1195.25,-1.65"/>
    </edge>
    <edge id="25to19" from="25" to="19" priority="-1">
        <lane id="25to19_0" index="0" speed="13.90" length="290.50" shape="1195.25,1501.65 904.75,1501.65"/>
    </edge>
    <edge id="25to26" from="25" to="26" priority="-1">
        <lane id="25to26_0" index="0" speed="13.90" length="293.80" shape="1198.35,1498.55 1198.35,1204.75"/>
    </edge>
    <edge id="26to20" from="26" to="20" priority="-1">
        <lane id="26to20_0" index="0" speed="13.90" length="290.50" shape="1195.25,1201.65 904.75,1201.65"/>
    </edge>
    <edge id="26to27" from="26" to="27" priority="-1">
        <lane id="26to27_0" index="0" speed="13.90" length="297.10" shape="1198.35,1198.55 1198.35,901.45"/>
    </edge>
    <edge id="27to28" from="27" to="28" priority="-1">
        <lane id="27to28_0" index="0" speed="13.90" length="283.90" shape="1191.75,888.65 1191.75,604.75"/>
        <lane id="27to28_1" index="1" speed="13.90" length="283.90" shape="1195.05,888.65 1195.05,604.75"/>
        <lane id="27to28_2" index="2" speed="13.90" length="283.90" shape="1198.35,888.65 1198.35,604.75"/>
    </edge>
    <edge id="27to33" from="27" to="33" priority="-1">
        <lane id="27to33_0" index="0" speed="13.90" length="297.10" shape="1201.45,898.35 1498.55,898.35"/>
    </edge>
    <edge id="28to22" from="28" to="22" priority="-1">
        <lane id="28to22_0" index="0" speed="13.90" length="283.90" shape="1188.65,601.65 904.75,601.65"/>
    </edge>
    <edge id="28to29" from="28" to="29" priority="-1">
        <lane id="28to29_0" index="0" speed="13.90" length="297.10" shape="1191.75,598.55 1191.75,301.45"/>
        <lane id="28to29_1" index="1" speed="13.90" length="297.10" shape="1195.05,598.55 1195.05,301.45"/>
        <lane id="28to29_2" index="2" speed="13.90" length="297.10" shape="1198.35,598.55 1198.35,301.45"/>
    </edge>
    <edge id="29to30" from="29" to="30" priority="-1">
        <lane id="29to30_0" index="0" speed="13.90" length="293.80" shape="1198.35,295.25 1198.35,1.45"/>
    </edge>
    <edge id="29to35" from="29" to="35" priority="-1">
        <lane id="29to35_0" index="0" speed="13.90" length="297.10" shape="1201.45,298.35 1498.55,298.35"/>
    </edge>
    <edge id="2to3" from="2" to="3" priority="-1">
        <lane id="2to3_0" index="0" speed="13.90" length="297.10" shape="-1.65,1198.55 -1.65,901.45"/>
    </edge>
    <edge id="30to36" from="30" to="36" priority="-1">
        <lane id="30to36_0" index="0" speed="13.90" length="298.60" shape="1201.45,-1.65 1500.05,-1.65"/>
    </edge>
    <edge id="31to25" from="31" to="25" priority="-1">
        <lane id="31to25_0" index="0" speed="13.90" length="298.60" shape="1500.05,1501.65 1201.45,1501.65"/>
    </edge>
    <edge id="32to26" from="32" to="26" priority="-1">
        <lane id="32to26_0" index="0" speed="13.90" length="297.10" shape="1498.55,1201.65 1201.45,1201.65"/>
    </edge>
    <edge id="32to31" from="32" to="31" priority="-1">
        <lane id="32to31_0" index="0" speed="13.90" length="295.30" shape="1501.65,1204.75 1501.65,1500.05"/>
    </edge>
    <edge id="33to32" from="33" to="32" priority="-1">
        <lane id="33to32_0" index="0" speed="13.90" length="297.10" shape="1501.65,901.45 1501.65,1198.55"/>
    </edge>
    <edge id="34to28" from="34" to="28" priority="-1">
        <lane id="34to28_0" index="0" speed="13.90" length="297.10" shape="1498.55,601.65 1201.45,601.65"/>
    </edge>
    <edge id="34to33" from="34" to="33" priority="-1">
        <lane id="34to33_0" index="0" speed="13.90" length="290.50" shape="1501.65,604.75 1501.65,895.25"/>
    </edge>
    <edge id="35to34" from="35" to="34" priority="-1">
        <lane id="35to34_0" index="0" speed="13.90" length="297.10" shape="1501.65,301.45 1501.65,598.55"/>
    </edge>
    <edge id="36to35" from="36" to="35" priority="-1">
        <lane id="36to35_0" index="0" speed="13.90" length="295.30" shape="1501.65,-0.05 1501.65,295.25"/>
    </edge>
    <edge id="3to4" from="3" to="4" priority="-1">
        <lane id="3to4_0" index="0" speed="13.90" length="290.50" shape="-1.65,895.25 -1.65,604.75"/>
    </edge>
    <edge id="3to9" from="3" to="9" priority="-1">