<?xml version="1.0" encoding="UTF-8"?>
<nodes xmlns:xsi="http://www.w3.org/2001/XMLSchema-instance" xsi:noNamespaceSchemaLocation="http://sumo.dlr.de/xsd/nodes_file.xsd">
    <node id="1" x="0.0" y="0.0" type="traffic_light"/>
    <node id="2" x="0.0" y="-300.0" type="traffic_light"/>
    <node id="3" x="0.0" y="-600.0" type="traffic_light"/>
    <node id="4" x="0.0" y="-900.0" type="traffic_light"/>
    <node id="5" x="0.0" y="-1200.0" type="traffic_light"/>
    <node id="6" x="0.0" y="-1500.0" type="traffic_light"/>

    <node id="7" x="300.0" y="0.0" type="traffic_light"/>
    <node id="8" x="300.0" y="-300.0" type="traffic_light"/>
    <node id="9" x="300.0" y="-600.0" type="traffic_light"/>
    <node id="10" x="300.0" y="-900.0" type="traffic_light"/>
    <node id="11" x="300.0" y="-1200.0" type="traffic_light"/>
    <node id="12" x="300.0" y="-1500.0" type="traffic_light"/>

    <node id="13" x="600.0" y="0.0" type="traffic_light"/>
    <node id="14" x="600.0" y="-300.0" type="traffic_light"/>
    <node id="15" x="600.0" y="-600.0" type="traffic_light"/>
    <node id="16" x="600.0" y="-900.0" type="traffic_light"/>
    <node id="17" x="600.0" y="-1200.0" type="traffic_light"/>
    <node id="18" x="600.0" y="-1500.0" type="traffic_light"/>

    <node id="19" x="900.0" y="0.0" type="traffic_light"/>
    <node id="20" x="900.0" y="-300.0" type="traffic_light"/>
    <node id="21" x="900.0" y="-600.0" type="traffic_light"/>
    <node id="22" x="900.0" y="-900.0" type="traffic_light"/>
    <node id="23" x="900.0" y="-1200.0" type="traffic_light"/>
    <node id="24" x="900.0" y="-1500.0" type="traffic_light"/>

    <node id="25" x="1200.0" y="0.0" type="traffic_light"/>
    <node id="26" x="1200.0" y="-300.0" type="traffic_light"/>
    <node id="27" x="1200.0" y="-600.0" type="traffic_light"/>
    <node id="28" x="1200.0" y="-900.0" type="traffic_light"/>
    <node id="29" x="1200.0" y="-1200.0" type="traffic_light"/>
    <node id="30" x="1200.0" y="-1500.0" type="traffic_light"/>

    <node id="31" x="1500.0" y="0.0" type="traffic_light"/>
    <node id="32" x="1500.0" y="-300.0" type="traffic_light"/>
    <node id="33" x="1500.0" y="-600.0" type="traffic_light"/>
    <node id="34" x="1500.0" y="-900.0" type="traffic_light"/>
    <node id="35" x="1500.0" y="-1200.0" type="traffic_light"/>
    <node id="36" x="1500.0" y="-1500.0" type="traffic_light"/>
</nodes>
