<routes>
                 <vType id="generic" accel="0.8" decel="4.5" sigma="0.5" length="3" minGap="2.1" maxSpeed="20" guiShape="passenger"/>
<route id="1" edges="33to32 32to26 26to20 "/>
<vehicle id="1" type="generic" route="1" depart="0" color="1,0,0"/>
<route id="2" edges="6to12 12to18 18to24 24to30 30to36 36to35 35to34 "/>
<vehicle id="2" type="generic" route="2" depart="0" color="1,0,0"/>
<route id="3" edges="19to13 13to14 14to15 15to21 21to27 27to28 "/>
<vehicle id="3" type="generic" route="3" depart="0" color="1,0,0"/>
<route id="4" edges="3to9 9to15 15to21 21to27 27to33 33to32 32to31 31to25 "/>
<vehicle id="4" type="generic" route="4" depart="0" color="1,0,0"/>
<route id="5" edges="6to12 12to11 11to10 10to9 9to15 15to21 21to20 "/>
<vehicle id="5" type="generic" route="5" depart="0" color="1,0,0"/>
<route id="6" edges="17to18 18to24 24to30 30to36 36to35 35to34 "/>
<vehicle id="6" type="generic" route="6" depart="0" color="1,0,0"/>
<route id="7" edges="16to10 10to9 9to15 15to21 21to20 20to19 "/>
<vehicle id="7" type="generic" route="7" depart="0" color="1,0,0"/>
<route id="8" edges="9to15 15to16 16to10 "/>
<vehicle id="8" type="generic" route="8" depart="0" color="1,0,0"/>
<route id="9" edges="29to35 35to34 34to33 33to32 32to26 26to20 20to14 14to15 15to16 16to17 "/>
<vehicle id="9" type="generic" route="9" depart="0" color="1,0,0"/>
<route id="10" edges="9to15 "/>
<vehicle id="10" type="generic" route="10" depart="0" color="1,0,0"/>
<route id="11" edges="27to28 28to22 22to16 16to17 17to23 "/>
<vehicle id="11" type="generic" route="11" depart="0" color="1,0,0"/>
<route id="12" edges="27to33 33to32 32to26 26to20 20to14 14to8 8to2 2to3 3to4 4to5 5to6 6to12 12to18 "/>
<vehicle id="12" type="generic" route="12" depart="0" color="1,0,0"/>
<route id="13" edges="1to2 2to3 3to4 4to5 5to6 6to12 12to18 "/>
<vehicle id="13" type="generic" route="13" depart="0" color="1,0,0"/>
<route id="14" edges="24to23 23to22 22to21 21to20 20to14 14to8 8to2 2to3 "/>
<vehicle id="14" type="generic" route="14" depart="0" color="1,0,0"/>
<route id="15" edges="10to9 9to15 15to21 21to27 "/>
<vehicle id="15" type="generic" route="15" depart="0" color="1,0,0"/>
<route id="16" edges="18to24 24to23 23to22 "/>
<vehicle id="16" type="generic" route="16" depart="0" color="1,0,0"/>
<route id="17" edges="12to11 11to10 10to9 9to15 15to21 21to20 20to14 "/>
<vehicle id="17" type="generic" route="17" depart="0" color="1,0,0"/>
<route id="18" edges="29to35 35to34 34to33 33to32 32to26 26to20 20to14 14to15 15to16 "/>
<vehicle id="18" type="generic" route="18" depart="0" color="1,0,0"/>
<route id="19" edges="31to25 25to19 19to13 13to14 "/>
<vehicle id="19" type="generic" route="19" depart="0" color="1,0,0"/>
<route id="20" edges="16to17 "/>
<vehicle id="20" type="generic" route="20" depart="0" color="1,0,0"/>
<route id="21" edges="4to5 5to6 6to12 12to18 18to24 24to30 30to36 36to35 35to34 "/>
<vehicle id="21" type="generic" route="21" depart="0" color="1,0,0"/>
<route id="22" edges="13to14 14to15 15to21 21to27 27to33 "/>
<vehicle id="22" type="generic" route="22" depart="0" color="1,0,0"/>
<route id="23" edges="17to23 23to22 22to21 21to20 20to14 14to8 8to7 "/>
<vehicle id="23" type="generic" route="23" depart="0" color="1,0,0"/>
<route id="24" edges="24to23 23to22 22to21 21to27 27to33 33to32 32to26 "/>
<vehicle id="24" type="generic" route="24" depart="0" color="1,0,0"/>
<route id="25" edges="23to22 22to16 16to10 10to4 4to5 5to6 6to12 "/>
<vehicle id="25" type="generic" route="25" depart="0" color="1,0,0"/>
<route id="26" edges="16to17 17to18 "/>
<vehicle id="26" type="generic" route="26" depart="0" color="1,0,0"/>
<route id="27" edges="9to8 8to2 2to3 3to4 "/>
<vehicle id="27" type="generic" route="27" depart="0" color="1,0,0"/>
<route id="28" edges="25to26 26to27 27to33 "/>
<vehicle id="28" type="generic" route="28" depart="0" color="1,0,0"/>
<route id="29" edges="26to27 27to33 33to32 32to31 "/>
<vehicle id="29" type="generic" route="29" depart="0" color="1,0,0"/>
<route id="30" edges="22to21 "/>
<vehicle id="30" type="generic" route="30" depart="0" color="1,0,0"/>
<route id="31" edges="2to3 3to9 9to15 15to21 21to27 27to28 28to29 "/>
<vehicle id="31" type="generic" route="31" depart="0" color="1,0,0"/>
<route id="32" edges="28to22 22to16 16to10 "/>
<vehicle id="32" type="generic" route="32" depart="0" color="1,0,0"/>
<route id="33" edges="23to29 29to30 30to36 "/>
<vehicle id="33" type="generic" route="33" depart="0" color="1,0,0"/>
<route id="34" edges="16to17 17to18 18to24 "/>
<vehicle id="34" type="generic" route="34" depart="0" color="1,0,0"/>
<route id="35" edges="31to25 25to19 19to13 13to7 7to1 1to2 2to3 3to4 "/>
<vehicle id="35" type="generic" route="35" depart="0" color="1,0,0"/>
<route id="36" edges="9to8 8to2 2to3 3to4 4to5 5to6 6to12 12to18 "/>
<vehicle id="36" type="generic" route="36" depart="0" color="1,0,0"/>
<route id="37" edges="28to22 22to16 16to17 "/>
<vehicle id="37" type="generic" route="37" depart="0" color="1,0,0"/>
<route id="38" edges="24to23 23to22 22to21 21to20 "/>
<vehicle id="38" type="generic" route="38" depart="0" color="1,0,0"/>
<route id="39" edges="30to36 36to35 35to34 34to28 "/>
<vehicle id="39" type="generic" route="39" depart="0" color="1,0,0"/>
<route id="40" edges="10to9 9to15 15to21 21to27 27to28 28to22 "/>
<vehicle id="40" type="generic" route="40" depart="0" color="1,0,0"/>
<route id="41" edges="36to35 35to34 34to28 28to29 "/>
<vehicle id="41" type="generic" route="41" depart="0" color="1,0,0"/>
<route id="42" edges="13to7 7to1 1to2 2to3 3to4 4to5 5to11 "/>
<vehicle id="42" type="generic" route="42" depart="0" color="1,0,0"/>
<route id="43" edges="31to25 25to19 19to13 13to7 7to1 1to2 2to3 3to4 4to5 5to6 6to12 "/>
<vehicle id="43" type="generic" route="43" depart="0" color="1,0,0"/>
<route id="44" edges="16to17 17to18 18to24 "/>
<vehicle id="44" type="generic" route="44" depart="0" color="1,0,0"/>
<route id="45" edges="26to20 20to14 14to15 15to16 16to17 17to23 "/>
<vehicle id="45" type="generic" route="45" depart="0" color="1,0,0"/>
<route id="46" edges="29to35 35to34 34to33 33to32 32to26 "/>
<vehicle id="46" type="generic" route="46" depart="0" color="1,0,0"/>
<route id="47" edges="23to22 22to21 21to20 20to14 "/>
<vehicle id="47" type="generic" route="47" depart="0" color="1,0,0"/>
<route id="48" edges="6to12 12to11 11to10 10to4 4to5 "/>
<vehicle id="48" type="generic" route="48" depart="0" color="1,0,0"/>
<route id="49" edges="7to1 1to2 2to3 3to9 9to15 15to21 21to27 27to28 28to29 29to35 35to34 "/>
<vehicle id="49" type="generic" route="49" depart="0" color="1,0,0"/>
<route id="50" edges="35to34 34to33 33to32 "/>
<vehicle id="50" type="generic" route="50" depart="0" color="1,0,0"/>
<route id="51" edges="6to12 12to18 "/>
<vehicle id="51" type="generic" route="51" depart="0" color="1,0,0"/>
<route id="52" edges="27to33 33to32 32to26 26to20 20to14 14to8 8to2 2to3 3to4 4to5 5to6 6to12 "/>
<vehicle id="52" type="generic" route="52" depart="0" color="1,0,0"/>
<route id="53" edges="15to16 16to10 10to4 "/>
<vehicle id="53" type="generic" route="53" depart="0" color="1,0,0"/>
<route id="54" edges="19to13 13to14 14to15 15to21 21to27 27to33 "/>
<vehicle id="54" type="generic" route="54" depart="0" color="1,0,0"/>
<route id="55" edges="33to32 32to26 26to20 20to14 14to15 15to16 16to10 "/>
<vehicle id="55" type="generic" route="55" depart="0" color="1,0,0"/>
<route id="56" edges="20to14 14to8 8to2 2to3 3to4 4to5 5to6 6to12 "/>
<vehicle id="56" type="generic" route="56" depart="0" color="1,0,0"/>
<route id="57" edges="26to27 27to28 28to29 29to30 "/>
<vehicle id="57" type="generic" route="57" depart="0" color="1,0,0"/>
<route id="58" edges="13to14 14to15 15to21 21to20 20to19 "/>
<vehicle id="58" type="generic" route="58" depart="0" color="1,0,0"/>
<route id="59" edges="30to36 36to35 35to34 34to28 "/>
<vehicle id="59" type="generic" route="59" depart="0" color="1,0,0"/>
<route id="60" edges="15to21 21to27 27to33 33to32 32to31 31to25 "/>
<vehicle id="60" type="generic" route="60" depart="0" color="1,0,0"/>
<route id="61" edges="20to14 14to15 15to21 "/>
<vehicle id="61" type="generic" route="61" depart="0" color="1,0,0"/>
<route id="62" edges="22to21 21to20 20to14 14to8 8to2 "/>
<vehicle id="62" type="generic" route="62" depart="0" color="1,0,0"/>
<route id="63" edges="19to13 13to14 14to15 15to21 21to27 27to28 "/>
<vehicle id="63" type="generic" route="63" depart="0" color="1,0,0"/>
<route id="64" edges="27to28 28to22 22to16 16to17 "/>
<vehicle id="64" type="generic" route="64" depart="0" color="1,0,0"/>
<route id="65" edges="1to2 2to3 3to4 "/>
<vehicle id="65" type="generic" route="65" depart="0" color="1,0,0"/>
<route id="66" edges="8to7 "/>
<vehicle id="66" type="generic" route="66" depart="0" color="1,0,0"/>
<route id="67" edges="12to11 11to10 10to9 9to8 8to2 "/>
<vehicle id="67" type="generic" route="67" depart="0" color="1,0,0"/>
<route id="68" edges="33to32 "/>
<vehicle id="68" type="generic" route="68" depart="0" color="1,0,0"/>
<route id="69" edges="2to3 3to4 4to5 "/>
<vehicle id="69" type="generic" route="69" depart="0" color="1,0,0"/>
<route id="70" edges="15to21 21to20 20to14 14to8 8to7 7to1 "/>
<vehicle id="70" type="generic" route="70" depart="0" color="1,0,0"/>
<route id="71" edges="16to17 17to18 18to24 24to30 30to36 36to35 "/>
<vehicle id="71" type="generic" route="71" depart="0" color="1,0,0"/>
<route id="72" edges="5to11 11to17 "/>
<vehicle id="72" type="generic" route="72" depart="0" color="1,0,0"/>
<route id="73" edges="32to26 26to20 "/>
<vehicle id="73" type="generic" route="73" depart="0" color="1,0,0"/>
<route id="74" edges="14to15 15to21 21to27 27to28 28to29 "/>
<vehicle id="74" type="generic" route="74" depart="0" color="1,0,0"/>
<route id="75" edges="25to19 19to13 13to14 14to8 "/>
<vehicle id="75" type="generic" route="75" depart="0" color="1,0,0"/>
<route id="76" edges="5to11 11to10 10to9 "/>
<vehicle id="76" type="generic" route="76" depart="0" color="1,0,0"/>
<route id="77" edges="11to10 10to9 9to15 15to21 21to27 27to33 33to32 32to31 31to25 "/>
<vehicle id="77" type="generic" route="77" depart="0" color="1,0,0"/>
<route id="78" edges="33to32 32to26 26to20 20to14 14to8 8to2 "/>
<vehicle id="78" type="generic" route="78" depart="0" color="1,0,0"/>
<route id="79" edges="14to15 15to21 21to27 27to28 28to29 "/>
<vehicle id="79" type="generic" route="79" depart="0" color="1,0,0"/>
<route id="80" edges="4to5 5to11 "/>
<vehicle id="80" type="generic" route="80" depart="0" color="1,0,0"/>
<route id="81" edges="5to11 11to10 10to9 9to15 "/>
<vehicle id="81" type="generic" route="81" depart="0" color="1,0,0"/>
<route id="82" edges="5to11 11to10 10to9 9to15 15to21 21to27 27to28 "/>
<vehicle id="82" type="generic" route="82" depart="0" color="1,0,0"/>
<route id="83" edges="18to24 24to23 23to22 22to21 21to20 20to14 "/>
<vehicle id="83" type="generic" route="83" depart="0" color="1,0,0"/>
<route id="84" edges="35to34 34to33 33to32 32to26 26to20 20to14 14to8 8to2 2to3 3to4 "/>
<vehicle id="84" type="generic" route="84" depart="0" color="1,0,0"/>
<route id="85" edges="24to30 30to36 "/>
<vehicle id="85" type="generic" route="85" depart="0" color="1,0,0"/>
<route id="86" edges="2to3 3to9 9to15 15to21 21to20 20to19 "/>
<vehicle id="86" type="generic" route="86" depart="0" color="1,0,0"/>
<route id="87" edges="11to10 "/>
<vehicle id="87" type="generic" route="87" depart="0" color="1,0,0"/>
<route id="88" edges="7to1 1to2 2to3 3to4 4to5 5to6 6to12 12to18 18to24 "/>
<vehicle id="88" type="generic" route="88" depart="0" color="1,0,0"/>
<route id="89" edges="14to15 15to16 16to10 "/>
<vehicle id="89" type="generic" route="89" depart="0" color="1,0,0"/>
<route id="90" edges="11to10 10to9 9to15 15to21 21to27 27to33 33to32 "/>
<vehicle id="90" type="generic" route="90" depart="0" color="1,0,0"/>
<route id="91" edges="25to26 26to27 27to28 28to29 29to30 30to36 "/>
<vehicle id="91" type="generic" route="91" depart="0" color="1,0,0"/>
<route id="92" edges="29to35 35to34 34to33 33to32 32to26 26to20 20to14 "/>
<vehicle id="92" type="generic" route="92" depart="0" color="1,0,0"/>
<route id="93" edges="28to22 22to21 21to20 "/>
<vehicle id="93" type="generic" route="93" depart="0" color="1,0,0"/>
<route id="94" edges="31to25 "/>
<vehicle id="94" type="generic" route="94" depart="0" color="1,0,0"/>
<route id="95" edges="30to36 36to35 35to34 34to33 33to32 32to26 "/>
<vehicle id="95" type="generic" route="95" depart="0" color="1,0,0"/>
<route id="96" edges="32to26 26to20 20to14 14to8 8to2 2to3 3to4 4to5 5to6 6to12 12to18 "/>
<vehicle id="96" type="generic" route="96" depart="0" color="1,0,0"/>
<route id="97" edges="6to12 12to11 11to10 10to9 9to15 15to21 21to20 20to19 "/>
<vehicle id="97" type="generic" route="97" depart="0" color="1,0,0"/>
<route id="98" edges="36to35 35to34 34to33 33to32 "/>
<vehicle id="98" type="generic" route="98" depart="0" color="1,0,0"/>
<route id="99" edges="22to16 "/>
<vehicle id="99" type="generic" route="99" depart="0" color="1,0,0"/>
<route id="100" edges="25to19 19to13 13to7 7to1 1to2 2to3 3to4 4to5 5to11 "/>
<vehicle id="100" type="generic" route="100" depart="0" color="1,0,0"/>
<route id="101" edges="6to12 12to18 18to24 24to30 30to36 36to35 35to34 "/>
<vehicle id="101" type="generic" route="101" depart="0" color="1,0,0"/>
<route id="102" edges="29to35 35to34 34to33 33to32 32to26 26to20 20to14 14to8 "/>
<vehicle id="102" type="generic" route="102" depart="0" color="1,0,0"/>
<route id="103" edges="26to20 20to14 14to8 8to7 7to1 "/>
<vehicle id="103" type="generic" route="103" depart="0" color="1,0,0"/>
<route id="104" edges="34to33 33to32 32to31 31to25 25to19 19to13 "/>
<vehicle id="104" type="generic" route="104" depart="0" color="1,0,0"/>
<route id="105" edges="20to14 14to15 "/>
<vehicle id="105" type="generic" route="105" depart="0" color="1,0,0"/>
<route id="106" edges="23to22 22to16 16to10 10to4 "/>
<vehicle id="106" type="generic" route="106" depart="0" color="1,0,0"/>
<route id="107" edges="20to14 14to15 15to16 16to17 "/>
<vehicle id="107" type="generic" route="107" depart="0" color="1,0,0"/>
<route id="108" edges="26to20 20to14 14to8 8to2 2to3 3to4 4to5 5to11 "/>
<vehicle id="108" type="generic" route="108" depart="0" color="1,0,0"/>
<route id="109" edges="15to16 16to10 "/>
<vehicle id="109" type="generic" route="109" depart="0" color="1,0,0"/>
<route id="110" edges="21to20 20to14 14to15 15to16 16to10 "/>
<vehicle id="110" type="generic" route="110" depart="0" color="1,0,0"/>
<route id="111" edges="31to25 25to19 "/>
<vehicle id="111" type="generic" route="111" depart="0" color="1,0,0"/>
<route id="112" edges="15to21 21to27 27to28 28to29 "/>
<vehicle id="112" type="generic" route="112" depart="0" color="1,0,0"/>
<route id="113" edges="20to14 14to8 8to7 "/>
<vehicle id="113" type="generic" route="113" depart="0" color="1,0,0"/>
<route id="114" edges="27to33 33to32 32to31 31to25 25to19 19to13 13to7 7to1 "/>
<vehicle id="114" type="generic" route="114" depart="0" color="1,0,0"/>
<route id="115" edges="1to2 2to3 3to9 9to15 15to21 21to20 20to19 "/>
<vehicle id="115" type="generic" route="115" depart="0" color="1,0,0"/>
<route id="116" edges="34to33 33to32 32to26 26to20 20to14 14to8 8to2 2to3 3to4 4to5 5to6 6to12 "/>
<vehicle id="116" type="generic" route="116" depart="0" color="1,0,0"/>
<route id="117" edges="15to21 21to20 20to14 14to8 8to2 2to3 "/>
<vehicle id="117" type="generic" route="117" depart="0" color="1,0,0"/>
<route id="118" edges="31to25 25to19 19to13 13to14 14to15 15to21 "/>
<vehicle id="118" type="generic" route="118" depart="0" color="1,0,0"/>
<route id="119" edges="15to21 21to20 20to14 "/>
<vehicle id="119" type="generic" route="119" depart="0" color="1,0,0"/>
<route id="120" edges="16to17 17to18 18to24 24to30 30to36 "/>
<vehicle id="120" type="generic" route="120" depart="0" color="1,0,0"/>
<route id="121" edges="14to8 8to2 2to3 3to4 4to5 5to6 6to12 12to18 "/>
<vehicle id="121" type="generic" route="121" depart="0" color="1,0,0"/>
<route id="122" edges="34to33 33to32 32to31 31to25 25to19 19to13 "/>
<vehicle id="122" type="generic" route="122" depart="0" color="1,0,0"/>
<route id="123" edges="16to10 10to9 9to15 15to21 21to27 "/>
<vehicle id="123" type="generic" route="123" depart="0" color="1,0,0"/>
<route id="124" edges="8to2 2to3 3to9 9to15 15to21 21to27 27to33 33to32 32to31 "/>
<vehicle id="124" type="generic" route="124" depart="0" color="1,0,0"/>
<route id="125" edges="29to35 35to34 34to33 33to32 32to31 31to25 25to19 19to13 13to7 "/>
<vehicle id="125" type="generic" route="125" depart="0" color="1,0,0"/>
<route id="126" edges="34to33 33to32 32to26 26to20 20to14 14to15 15to21 "/>
<vehicle id="126" type="generic" route="126" depart="0" color="1,0,0"/>
<route id="127" edges="24to23 23to22 22to16 16to17 17to18 "/>
<vehicle id="127" type="generic" route="127" depart="0" color="1,0,0"/>
<route id="128" edges="34to28 "/>
<vehicle id="128" type="generic" route="128" depart="0" color="1,0,0"/>
<route id="129" edges="12to11 11to10 10to9 9to8 8to2 "/>
<vehicle id="129" type="generic" route="129" depart="0" color="1,0,0"/>
<route id="130" edges="21to27 27to28 28to29 "/>
<vehicle id="130" type="generic" route="130" depart="0" color="1,0,0"/>
<route id="131" edges="36to35 35to34 34to33 33to32 32to26 26to20 "/>
<vehicle id="131" type="generic" route="131" depart="0" color="1,0,0"/>
<route id="132" edges="29to35 35to34 34to28 "/>
<vehicle id="132" type="generic" route="132" depart="0" color="1,0,0"/>
<route id="133" edges="28to29 29to35 "/>
<vehicle id="133" type="generic" route="133" depart="0" color="1,0,0"/>
<route id="134" edges="9to15 15to21 21to27 27to33 "/>
<vehicle id="134" type="generic" route="134" depart="0" color="1,0,0"/>
<route id="135" edges="30to36 36to35 35to34 34to33 33to32 32to26 26to20 20to14 14to15 "/>
<vehicle id="135" type="generic" route="135" depart="0" color="1,0,0"/>
<route id="136" edges="36to35 35to34 34to33 33to32 32to26 26to20 20to14 14to15 15to16 16to10 "/>
<vehicle id="136" type="generic" route="136" depart="0" color="1,0,0"/>
<route id="137" edges="33to32 32to31 "/>
<vehicle id="137" type="generic" route="137" depart="0" color="1,0,0"/>
<route id="138" edges="33to32 32to26 26to20 "/>
<vehicle id="138" type="generic" route="138" depart="0" color="1,0,0"/>
<route id="139" edges="14to15 15to21 21to27 27to28 28to29 29to35 "/>
<vehicle id="139" type="generic" route="139" depart="0" color="1,0,0"/>
<route id="140" edges="17to23 23to22 22to21 21to20 20to14 "/>
<vehicle id="140" type="generic" route="140" depart="0" color="1,0,0"/>
<route id="141" edges="12to11 11to10 10to9 9to15 15to21 21to27 27to33 33to32 32to31 31to25 "/>
<vehicle id="141" type="generic" route="141" depart="0" color="1,0,0"/>
<route id="142" edges="30to36 36to35 35to34 34to33 33to32 32to26 26to20 20to14 14to15 15to16 "/>
<vehicle id="142" type="generic" route="142" depart="0" color="1,0,0"/>
<route id="143" edges="17to18 18to24 24to30 "/>
<vehicle id="143" type="generic" route="143" depart="0" color="1,0,0"/>
<route id="144" edges="8to2 "/>
<vehicle id="144" type="generic" route="144" depart="0" color="1,0,0"/>
<route id="145" edges="11to10 10to4 4to5 5to6 6to12 "/>
<vehicle id="145" type="generic" route="145" depart="0" color="1,0,0"/>
<route id="146" edges="23to22 22to16 16to17 17to18 18to24 "/>
<vehicle id="146" type="generic" route="146" depart="0" color="1,0,0"/>
<route id="147" edges="11to10 10to9 9to8 8to2 2to3 "/>
<vehicle id="147" type="generic" route="147" depart="0" color="1,0,0"/>
<route id="148" edges="18to24 24to23 23to22 22to16 16to10 10to4 4to5 5to11 "/>
<vehicle id="148" type="generic" route="148" depart="0" color="1,0,0"/>
<route id="149" edges="23to22 22to16 16to17 17to18 18to24 "/>
<vehicle id="149" type="generic" route="149" depart="0" color="1,0,0"/>
<route id="150" edges="23to22 22to21 21to20 20to14 14to15 "/>
<vehicle id="150" type="generic" route="150" depart="0" color="1,0,0"/>
<route id="151" edges="29to35 35to34 34to33 33to32 32to26 26to20 20to14 14to8 8to2 2to3 3to4 4to5 "/>
<vehicle id="151" type="generic" route="151" depart="0" color="1,0,0"/>
<route id="152" edges="32to26 26to20 20to14 14to8 "/>
<vehicle id="152" type="generic" route="152" depart="0" color="1,0,0"/>
<route id="153" edges="6to12 12to18 18to24 24to30 30to36 36to35 "/>
<vehicle id="153" type="generic" route="153" depart="0" color="1,0,0"/>
<route id="154" edges="16to10 "/>
<vehicle id="154" type="generic" route="154" depart="0" color="1,0,0"/>
<route id="155" edges="7to1 1to2 2to3 3to4 "/>
<vehicle id="155" type="generic" route="155" depart="0" color="1,0,0"/>
<route id="156" edges="19to13 13to14 14to15 15to21 21to27 27to33 33to32 32to31 31to25 "/>
<vehicle id="156" type="generic" route="156" depart="0" color="1,0,0"/>
<route id="157" edges="24to23 23to22 22to21 21to20 20to19 "/>
<vehicle id="157" type="generic" route="157" depart="0" color="1,0,0"/>
<route id="158" edges="10to4 4to5 5to6 6to12 12to18 18to24 24to30 30to36 "/>
<vehicle id="158" type="generic" route="158" depart="0" color="1,0,0"/>
<route id="159" edges="26to27 "/>
<vehicle id="159" type="generic" route="159" depart="0" color="1,0,0"/>
<route id="160" edges="17to23 23to22 22to21 21to27 "/>
<vehicle id="160" type="generic" route="160" depart="0" color="1,0,0"/>
<route id="161" edges="21to27 27to33 33to32 32to26 "/>
<vehicle id="161" type="generic" route="161" depart="0" color="1,0,0"/>
<route id="162" edges="20to14 14to8 8to2 "/>
<vehicle id="162" type="generic" route="162" depart="0" color="1,0,0"/>
<route id="163" edges="2to3 3to9 9to15 15to21 21to27 27to28 "/>
<vehicle id="163" type="generic" route="163" depart="0" color="1,0,0"/>
<route id="164" edges="21to20 20to14 14to15 15to16 16to17 17to23 "/>
<vehicle id="164" type="generic" route="164" depart="0" color="1,0,0"/>
<route id="165" edges="3to4 "/>
<vehicle id="165" type="generic" route="165" depart="0" color="1,0,0"/>
<route id="166" edges="31to25 25to26 26to27 27to28 28to22 "/>
<vehicle id="166" type="generic" route="166" depart="0" color="1,0,0"/>
<route id="167" edges="23to29 29to30 "/>
<vehicle id="167" type="generic" route="167" depart="0" color="1,0,0"/>
<route id="168" edges="18to24 24to23 23to22 22to21 21to20 20to19 "/>
<vehicle id="168" type="generic" route="168" depart="0" color="1,0,0"/>
<route id="169" edges="12to11 11to10 10to9 9to15 15to21 21to20 20to19 "/>
<vehicle id="169" type="generic" route="169" depart="0" color="1,0,0"/>
<route id="170" edges="34to33 33to32 32to26 26to20 20to14 14to8 8to2 2to3 3to4 4to5 "/>
<vehicle id="170" type="generic" route="170" depart="0" color="1,0,0"/>
<route id="171" edges="12to11 "/>
<vehicle id="171" type="generic" route="171" depart="0" color="1,0,0"/>
<route id="172" edges="36to35 35to34 34to33 "/>
<vehicle id="172" type="generic" route="172" depart="0" color="1,0,0"/>
<route id="173" edges="27to28 28to22 22to16 16to17 "/>
<vehicle id="173" type="generic" route="173" depart="0" color="1,0,0"/>
<route id="174" edges="23to22 22to21 21to20 20to14 14to8 8to2 2to3 "/>
<vehicle id="174" type="generic" route="174" depart="0" color="1,0,0"/>
<route id="175" edges="25to19 19to13 13to7 7to1 1to2 2to3 3to4 4to5 5to6 6to12 12to18 "/>
<vehicle id="175" type="generic" route="175" depart="0" color="1,0,0"/>
<route id="176" edges="24to23 "/>
<vehicle id="176" type="generic" route="176" depart="0" color="1,0,0"/>
<route id="177" edges="7to1 1to2 2to3 3to9 9to15 15to21 21to20 20to14 "/>
<vehicle id="177" type="generic" route="177" depart="0" color="1,0,0"/>
<route id="178" edges="25to26 26to27 27to33 "/>
<vehicle id="178" type="generic" route="178" depart="0" color="1,0,0"/>
<route id="179" edges="26to20 20to14 14to8 8to2 2to3 3to4 4to5 5to6 6to12 12to18 18to24 "/>
<vehicle id="179" type="generic" route="179" depart="0" color="1,0,0"/>
<route id="180" edges="36to35 35to34 34to33 33to32 32to26 26to20 20to14 14to8 8to2 "/>
<vehicle id="180" type="generic" route="180" depart="0" color="1,0,0"/>
<route id="181" edges="8to2 2to3 3to9 9to15 15to21 21to27 27to33 33to32 32to31 31to25 "/>
<vehicle id="181" type="generic" route="181" depart="0" color="1,0,0"/>
<route id="182" edges="35to34 34to33 33to32 32to26 26to20 20to14 14to8 8to2 2to3 3to4 4to5 5to11 "/>
<vehicle id="182" type="generic" route="182" depart="0" color="1,0,0"/>
<route id="183" edges="16to10 10to9 9to15 "/>
<vehicle id="183" type="generic" route="183" depart="0" color="1,0,0"/>
<route id="184" edges="19to13 13to14 14to15 15to16 16to10 "/>
<vehicle id="184" type="generic" route="184" depart="0" color="1,0,0"/>
<route id="185" edges="29to35 35to34 34to33 33to32 32to26 26to20 20to14 14to8 8to2 2to3 3to4 4to5 5to6 6to12 "/>
<vehicle id="185" type="generic" route="185" depart="0" color="1,0,0"/>
<route id="186" edges="20to14 14to15 15to21 21to27 27to33 33to32 32to31 31to25 "/>
<vehicle id="186" type="generic" route="186" depart="0" color="1,0,0"/>
<route id="187" edges="14to15 15to21 21to27 27to28 28to29 29to30 30to36 "/>
<vehicle id="187" type="generic" route="187" depart="0" color="1,0,0"/>
<route id="188" edges="30to36 36to35 35to34 34to28 28to29 "/>
<vehicle id="188" type="generic" route="188" depart="0" color="1,0,0"/>
<route id="189" edges="33to32 32to26 26to27 27to28 28to29 29to30 "/>
<vehicle id="189" type="generic" route="189" depart="0" color="1,0,0"/>
<route id="190" edges="25to26 26to27 27to33 "/>
<vehicle id="190" type="generic" route="190" depart="0" color="1,0,0"/>
<route id="191" edges="28to22 22to16 16to10 10to4 4to5 5to6 "/>
<vehicle id="191" type="generic" route="191" depart="0" color="1,0,0"/>
<route id="192" edges="9to15 15to21 21to20 20to19 "/>
<vehicle id="192" type="generic" route="192" depart="0" color="1,0,0"/>
<route id="193" edges="8to2 2to3 3to4 4to5 5to6 6to12 12to18 18to24 "/>
<vehicle id="193" type="generic" route="193" depart="0" color="1,0,0"/>
<route id="194" edges="13to14 14to15 15to21 21to27 27to28 28to29 29to30 30to36 "/>
<vehicle id="194" type="generic" route="194" depart="0" color="1,0,0"/>
<route id="195" edges="23to22 22to16 16to17 17to18 18to24 "/>
<vehicle id="195" type="generic" route="195" depart="0" color="1,0,0"/>
<route id="196" edges="22to21 21to27 27to28 28to29 "/>
<vehicle id="196" type="generic" route="196" depart="0" color="1,0,0"/>
<route id="197" edges="34to28 28to29 "/>
<vehicle id="197" type="generic" route="197" depart="0" color="1,0,0"/>
<route id="198" edges="19to13 13to14 14to15 15to21 21to27 27to28 28to29 29to35 "/>
<vehicle id="198" type="generic" route="198" depart="0" color="1,0,0"/>
<route id="199" edges="27to33 33to32 32to31 "/>
<vehicle id="199" type="generic" route="199" depart="0" color="1,0,0"/>
<route id="200" edges="22to21 21to27 27to33 "/>
<vehicle id="200" type="generic" route="200" depart="0" color="1,0,0"/>
<route id="201" edges="14to15 15to16 "/>
<vehicle id="201" type="generic" route="201" depart="0" color="1,0,0"/>
<route id="202" edges="1to2 2to3 3to9 9to15 15to21 21to20 20to14 "/>
<vehicle id="202" type="generic" route="202" depart="0" color="1,0,0"/>
<route id="203" edges="23to22 22to21 21to20 20to14 14to8 8to7 "/>
<vehicle id="203" type="generic" route="203" depart="0" color="1,0,0"/>
<route id="204" edges="25to19 19to13 13to7 7to1 1to2 2to3 3to4 4to5 "/>
<vehicle id="204" type="generic" route="204" depart="0" color="1,0,0"/>
<route id="205" edges="13to7 7to1 1to2 2to3 3to4 4to5 5to11 "/>
<vehicle id="205" type="generic" route="205" depart="0" color="1,0,0"/>
<route id="206" edges="18to24 24to23 23to22 22to16 "/>
<vehicle id="206" type="generic" route="206" depart="0" color="1,0,0"/>
<route id="207" edges="15to21 21to20 20to14 14to8 8to7 7to1 "/>
<vehicle id="207" type="generic" route="207" depart="0" color="1,0,0"/>
<route id="208" edges="36to35 35to34 34to33 33to32 32to26 26to20 20to14 14to8 8to2 "/>
<vehicle id="208" type="generic" route="208" depart="0" color="1,0,0"/>
<route id="209" edges="36to35 35to34 34to33 33to32 32to26 26to27 "/>
<vehicle id="209" type="generic" route="209" depart="0" color="1,0,0"/>
<route id="210" edges="9to15 15to16 16to17 "/>
<vehicle id="210" type="generic" route="210" depart="0" color="1,0,0"/>
<route id="211" edges="14to8 "/>
<vehicle id="211" type="generic" route="211" depart="0" color="1,0,0"/>
<route id="212" edges="23to22 22to16 16to17 "/>
<vehicle id="212" type="generic" route="212" depart="0" color="1,0,0"/>
<route id="213" edges="35to34 34to33 33to32 32to26 26to20 20to14 14to15 15to16 "/>
<vehicle id="213" type="generic" route="213" depart="0" color="1,0,0"/>
<route id="214" edges="11to17 17to18 18to24 24to30 30to36 "/>
<vehicle id="214" type="generic" route="214" depart="0" color="1,0,0"/>
<route id="215" edges="12to11 11to10 10to9 9to15 15to21 21to20 20to14 "/>
<vehicle id="215" type="generic" route="215" depart="0" color="1,0,0"/>
<route id="216" edges="6to12 12to18 18to24 24to23 23to29 "/>
<vehicle id="216" type="generic" route="216" depart="0" color="1,0,0"/>
<route id="217" edges="34to33 33to32 32to26 26to20 20to14 14to15 15to21 "/>
<vehicle id="217" type="generic" route="217" depart="0" color="1,0,0"/>
<route id="218" edges="11to17 17to18 "/>
<vehicle id="218" type="generic" route="218" depart="0" color="1,0,0"/>
<route id="219" edges="31to25 25to26 "/>
<vehicle id="219" type="generic" route="219" depart="0" color="1,0,0"/>
<route id="220" edges="9to8 8to7 "/>
<vehicle id="220" type="generic" route="220" depart="0" color="1,0,0"/>
<route id="221" edges="35to34 34to33 "/>
<vehicle id="221" type="generic" route="221" depart="0" color="1,0,0"/>
<route id="222" edges="1to2 2to3 3to4 4to5 5to6 6to12 12to18 18to24 "/>
<vehicle id="222" type="generic" route="222" depart="0" color="1,0,0"/>
<route id="223" edges="8to2 2to3 3to9 9to15 "/>
<vehicle id="223" type="generic" route="223" depart="0" color="1,0,0"/>
<route id="224" edges="34to33 33to32 32to26 26to20 20to14 14to8 8to2 2to3 3to4 4to5 5to6 6to12 12to18 "/>
<vehicle id="224" type="generic" route="224" depart="0" color="1,0,0"/>
<route id="225" edges="10to9 9to15 15to21 21to20 "/>